16
	Energy: -192973.9206185
C          0.00000        0.65715        1.41552
H          0.00000        1.28331        2.28847
C          0.00000       -0.65715        1.41552
H          0.00000       -1.28331        2.28847
C          0.00000        1.25751        0.00000
H          0.00000        2.33914        0.00000
C          0.00000       -1.25751        0.00000
H          0.00000       -2.33914        0.00000
C         -1.22588       -0.65715       -0.70776
C         -1.22588        0.65715       -0.70776
H         -1.98187       -1.28331       -1.14423
H         -1.98187        1.28331       -1.14423
C          1.22588       -0.65715       -0.70776
C          1.22588        0.65715       -0.70776
H          1.98187       -1.28331       -1.14423
H          1.98187        1.28331       -1.14423
