21
	Energy: -317931.0446470
C          0.00000        1.21086        1.90591
H          0.00000        2.27858        1.92475
C         -1.15159        0.37417        1.90591
H         -2.16706        0.70412        1.92475
C         -0.71172       -0.97960        1.90591
H         -1.33932       -1.84341        1.92475
C          1.15159        0.37417        1.90591
H          2.16706        0.70412        1.92475
C          0.71172       -0.97960        1.90591
H          1.33932       -1.84341        1.92475
C          0.00000       -1.21086       -1.90591
H          0.00000       -2.27858       -1.92475
C         -1.15159       -0.37417       -1.90591
H         -2.16706       -0.70412       -1.92475
C         -0.71172        0.97960       -1.90591
H         -1.33932        1.84341       -1.92475
C          1.15159       -0.37417       -1.90591
H          2.16706       -0.70412       -1.92475
C          0.71172        0.97960       -1.90591
H          1.33932        1.84341       -1.92475
Fe         0.00000        0.00000        0.00000
