6
	Energy: -645646.9302335
Cl         0.46743        1.56265       -0.44348
Cl        -0.46743       -1.56265       -0.44348
N         -0.46743       -0.49286        0.93902
H         -1.37935       -0.08389        0.96604
N          0.46743        0.49286        0.93902
H          1.37935        0.08389        0.96604
