36
	Energy: -616138.5476041
N          0.00000        2.07420        0.00000
N          2.07420        0.00000        0.00000
N          0.00000       -2.07420        0.00000
N         -2.07420        0.00000        0.00000
C         -1.07848        2.85452        0.00000
C         -0.67375        4.26377        0.00000
C          0.67375        4.26377        0.00000
C          1.07848        2.85452        0.00000
C          2.40573        2.40573        0.00000
C          2.85452        1.07848        0.00000
C          4.26377        0.67375        0.00000
C          4.26377       -0.67375        0.00000
C          2.85452       -1.07848        0.00000
C          2.40573       -2.40573        0.00000
C          1.07848       -2.85452        0.00000
C          0.67375       -4.26377        0.00000
C         -0.67375       -4.26377        0.00000
C         -1.07848       -2.85452        0.00000
C         -2.40573       -2.40573        0.00000
C         -2.85452       -1.07848        0.00000
C         -4.26377       -0.67375        0.00000
C         -4.26377        0.67375        0.00000
C         -2.85452        1.07848        0.00000
C         -2.40573        2.40573        0.00000
H         -1.33454        5.11434        0.00000
H          1.33454        5.11434        0.00000
H          3.17043        3.17043        0.00000
H          5.11434        1.33454        0.00000
H          5.11434       -1.33454        0.00000
H          3.17043       -3.17043        0.00000
H          1.33454       -5.11434        0.00000
H         -1.33454       -5.11434        0.00000
H         -3.17043       -3.17043        0.00000
H         -5.11434       -1.33454        0.00000
H         -5.11434        1.33454        0.00000
H         -3.17043        3.17043        0.00000
